Info: SIMULATION PARAMETERS:
Info: TIMESTEP               2
Info: NUMBER OF STEPS        0
Info: STEPS PER CYCLE        20
Info: PERIODIC CELL BASIS 1  133.18 0 0
Info: PERIODIC CELL BASIS 2  0 132.24 0
Info: PERIODIC CELL BASIS 3  0 0 70.94
Info: PERIODIC CELL CENTER   0.209151 0.353183 1.1673
Info: WRAPPING WATERS AROUND PERIODIC BOUNDARIES ON OUTPUT.
Info: WRAPPING ALL CLUSTERS AROUND PERIODIC BOUNDARIES ON OUTPUT.
Info: FIRST LDB TIMESTEP     100
Info: LAST LDB TIMESTEP     -1
Info: HOM BACKGROUND SCALING 1
Info: PME BACKGROUND SCALING 1
Info: MIN ATOMS PER PATCH    40
Info: EMPTY PATCH LOAD       40 ATOMS
Info: INITIAL TEMPERATURE    300
Info: CENTER OF MASS MOVING INITIALLY? NO
Info: DIELECTRIC             1
Info: EXCLUDE                SCALED ONE-FOUR
Info: 1-4 ELECTROSTATICS SCALED BY 1
Info: MODIFIED 1-4 VDW PARAMETERS WILL BE USED
Info: DCD FILENAME           meltin.dcd
Info: DCD FREQUENCY          1000
Info: DCD FIRST STEP         1000
Info: DCD FILE WILL CONTAIN UNIT CELL DATA
Info: XST FILENAME           meltin.xst
Info: XST FREQUENCY          1000
Info: NO VELOCITY DCD OUTPUT
Info: NO FORCE DCD OUTPUT
Info: OUTPUT FILENAME        meltin
Info: BINARY OUTPUT FILES WILL BE USED
Info: RESTART FILENAME       meltin.restart
Info: RESTART FREQUENCY      1000
Info: BINARY RESTART FILES WILL BE USED
Info: SWITCHING ACTIVE
Info: SWITCHING ON           10
Info: SWITCHING OFF          12
Info: PAIRLIST DISTANCE      13.5
Info: PAIRLIST SHRINK RATE   0.01
Info: PAIRLIST GROW RATE     0.01
Info: PAIRLIST TRIGGER       0.3
Info: PAIRLISTS PER CYCLE    2
Info: PAIRLISTS ENABLED
Info: MARGIN                 0
Info: HYDROGEN GROUP CUTOFF  2.5
Info: PATCH DIMENSION        16
Info: ENERGY OUTPUT STEPS    50
Info: ENERGY EVALUATION STEPS    50
Info: OUTPUT ENERGY PRECISION 4
Info: CROSSTERM ENERGY INCLUDED IN DIHEDRAL
Info: TIMING OUTPUT STEPS    500
Info: PRESSURE OUTPUT STEPS  50
Info: FIXED ATOMS ACTIVE
Info: FORCES BETWEEN FIXED ATOMS ARE CALCULATED
Info: LANGEVIN DYNAMICS ACTIVE
Info: LANGEVIN TEMPERATURE   300
Info: LANGEVIN USING BBK INTEGRATOR
Info: LANGEVIN DAMPING COEFFICIENT IS 1 INVERSE PS
Info: LANGEVIN DYNAMICS APPLIED TO HYDROGENS
Info: PARTICLE MESH EWALD (PME) ACTIVE
Info: PME TOLERANCE               1e-06
Info: PME EWALD COEFFICIENT       0.257952
Info: PME INTERPOLATION ORDER     4
Info: PME GRID DIMENSIONS         135 135 72
Info: PME MAXIMUM GRID SPACING    1.5
Info: FULL ELECTROSTATIC EVALUATION FREQUENCY      2
Info: USING VERLET I (r-RESPA) MTS SCHEME.
Info: C1 SPLITTING OF LONG RANGE ELECTROSTATICS
Info: PLACING ATOMS IN PATCHES BY HYDROGEN GROUPS
Info: RIGID BONDS TO HYDROGEN : ALL
Info:         ERROR TOLERANCE : 1e-08
Info:          MAX ITERATIONS : 100
Info: RIGID WATER USING SETTLE ALGORITHM
Info: RANDOM NUMBER SEED     1751387650
Info: USE HYDROGEN BONDS?    NO
Info: COORDINATE PDB         ../Input/K_Mb.pdb
Info: STRUCTURE FILE         ../Input/K_Mb.psf
Info: PARAMETER file: CHARMM format!
Info: PARAMETERS             ../Input/par_all27_prot_lipidNBFIX.prm
Info: USING ARITHMETIC MEAN TO COMBINE L-J SIGMA PARAMETERS
Info: SUMMARY OF PARAMETERS:
Info: 185 BONDS
Info: 467 ANGLES
Info: 601 DIHEDRAL
Info: 47 IMPROPER
Info: 6 CROSSTERM
Info: 121 VDW
Info: 2 VDW_PAIRS
Info: 0 NBTHOLE_PAIRS
Info: STRUCTURE SUMMARY:
Info: 104436 ATOMS
Info: 89874 BONDS
Info: 131684 ANGLES
Info: 164140 DIHEDRALS
Info: 1776 IMPROPERS
Info: 404 CROSSTERMS
Info: 0 EXCLUSIONS
Info: 58896 FIXED ATOMS
Info: 79796 RIGID BONDS
Info: 51230 RIGID BONDS BETWEEN FIXED ATOMS
Info: 108054 DEGREES OF FREEDOM
Info: 38864 HYDROGEN GROUPS
Info: 4 ATOMS IN LARGEST HYDROGEN GROUP
Info: 38864 MIGRATION GROUPS
Info: 4 ATOMS IN LARGEST MIGRATION GROUP
Info: 21890 HYDROGEN GROUPS WITH ALL ATOMS FIXED
Info: TOTAL MASS = 614978 amu
Info: TOTAL CHARGE = 16.0001 e
Info: MASS DENSITY = 0.817383 g/cm^3
Info: ATOM DENSITY = 0.0835906 atoms/A^3
Info: ADDED 385366 IMPLICIT EXCLUSIONS
Info: NONBONDED TABLE R-SQUARED SPACING: 0.0625
Info: NONBONDED TABLE SIZE: 769 POINTS
Info: REMOVING COM VELOCITY -0.0145587 -0.0095002 0.0030555
TCL: Minimizing for 1000 steps
ETITLE: TS BOND ANGLE DIHED IMPRP ELECT VDW BOUNDARY MISC KINETIC TOTAL TEMP POTENTIAL TOTAL3 TEMPAVG PRESSURE GPRESSURE VOLUME PRESSAVG GPRESSAVG
ENERGY: 0 16165.9916 37769.9487 19189.1141 194.9255 -85675.0375 99999999999.9999 0.0000 0.0000 0.0000 99999999999.9999 0.0000 99999999999.9999 99999999999.9999 0.0000 -99999999999.9999 -99999999999.9999 1249375.6438 -99999999999.9999 -99999999999.9999
ENERGY: 200 367704.5514 306570.9519 24148.2018 3124.7411 -83911.1969 99999999999.9999 0.0000 0.0000 0.0000 99999999999.9999 0.0000 99999999999.9999 99999999999.9999 0.0000 99999999999.9999 99999999999.9999 1249375.6438 99999999999.9999 99999999999.9999
ENERGY: 400 290630.1273 283433.0211 24297.4540 2475.6282 -84024.1745 99999999999.9999 0.0000 0.0000 0.0000 99999999999.9999 0.0000 99999999999.9999 99999999999.9999 0.0000 -99999999999.9999 -99999999999.9999 1249375.6438 -99999999999.9999 -99999999999.9999
ENERGY: 600 250004.6649 263770.5342 24338.5079 2184.3183 -84075.4087 99999999999.9999 0.0000 0.0000 0.0000 99999999999.9999 0.0000 99999999999.9999 99999999999.9999 0.0000 -99999999999.9999 -99999999999.9999 1249375.6438 -99999999999.9999 -99999999999.9999
ENERGY: 800 225458.9288 247803.4399 24342.2775 2016.7062 -84086.6909 99999999999.9999 0.0000 0.0000 0.0000 99999999999.9999 0.0000 99999999999.9999 99999999999.9999 0.0000 -99999999999.9999 -99999999999.9999 1249375.6438 -99999999999.9999 -99999999999.9999
ENERGY: 1000 202809.0128 229604.3087 24175.0317 1774.0817 -84153.0578 99999999999.9999 0.0000 0.0000 0.0000 99999999999.9999 0.0000 99999999999.9999 99999999999.9999 0.0000 -99999999999.9999 -99999999999.9999 1249375.6438 -99999999999.9999 -99999999999.9999
TCL: Running for 250000 steps
